Circuit: * D:\ViKo\Works\LTspice works\(LTspice) Components\_Component_Test.asc

WARNING: Less than two connections to node NC_01.  This node is used by R:U1:PIN2.
WARNING: Less than two connections to node NC_02.  This node is used by R:U1:NIN2.
Early termination of direct N-R iteration.
Direct Newton iteration failed to find .op point.  (Use ".option noopiter" to skip.)
Starting Gmin stepping
Gmin = 10
vernier = 0.5
vernier = 0.25
Gmin = 3.62829
vernier = 0.125
vernier = 0.0625
vernier = 0.03125
vernier = 0.015625
vernier = 0.0078125
Gmin = 3.82517
vernier = 0.00390625
vernier = 0.00195313
vernier = 0.000976563
vernier = 0.000488281
Gmin = 3.82424
Gmin = 0
Gmin stepping failed

Starting source stepping with srcstepmethod=0
Source Step = 3.0303%
Source Step = 33.3333%
Source Step = 63.6364%
Source Step = 93.9394%
Source stepping succeeded in finding the operating point.

Ignoring empty pin current: Ix(u1:999)
Ignoring empty pin current: Ix(u1:999)



Date: Thu Apr 21 18:54:45 2016
Total elapsed time: 9.721 seconds.

tnom = 27
temp = 27
method = modified trap
totiter = 6662
traniter = 5003
tranpoints = 1787
accept = 1639
rejected = 148
matrix size = 94
fillins = 287
solver = Normal
Matrix Compiler1: 22.92 KB object code size  14.0/10.1/[4.5]
Matrix Compiler2: off  [4.5]/6.1/12.3


